#RADIOSS STARTER
##========================================================================================
##
## Radioss Input Deck Generated by HyperMesh Version  : 2025.0.0.24
## Generated using HyperMesh-Radioss Template Version : 2025.0.0.24-168648
## Date: 12-18-2025   Time: 13:51:28
##
##========================================================================================
##
##
/BEGIN
#Runname                                                                        
s1                                                                              
#   Invers      Irun
      2024         0
#    Input_mass_unit   Input_length_unit     Input_time_unit
                  kg                   m                   s
#     Work_mass_unit    Work_length_unit      Work_time_unit
                  kg                   m                   s
##
#---1----|----2----|----3----|----4----|----5----|----6----|----7----|----8----|----9----|---10----|
/NODE
#  node_ID                  Xc                  Yc                  Zc
         1                -0.5                 0.5                -3.0
         2                -0.5                 0.4                -3.0
         3                -0.5                 0.3                -3.0
         4                -0.5                 0.2                -3.0
         5                -0.5                 0.1                -3.0
         6                -0.5                 0.0                -3.0
         7                -0.5                -0.1                -3.0
         8                -0.5                -0.2                -3.0
         9                -0.5                -0.3                -3.0
        10                -0.5                -0.4                -3.0
        11                -0.5                -0.5                -3.0
        12                -0.5                -0.5                -2.9
        13                -0.5                -0.5                -2.8
        14                -0.5                -0.5                -2.7
        15                -0.5                -0.5                -2.6
        16                -0.5                -0.5                -2.5
        17                -0.5                -0.5                -2.4
        18                -0.5                -0.5                -2.3
        19                -0.5                -0.5                -2.2
        20                -0.5                -0.5                -2.1
# ... 7361 like lines cut
#---1----|----2----|----3----|----4----|----5----|----6----|----7----|----8----|----9----|---10----|
/BRICK/1
# brick_ID  node_ID1  node_ID2  node_ID3  node_ID4  node_ID5  node_ID6  node_ID7  node_ID8
       601       439       440       444       443       672       673       674       675
       602       672       673       674       675       676       677       678       679
       603       676       677       678       679       680       681       682       683
       604       680       681       682       683       684       685       686       687
       605       684       685       686       687       688       689       690       691
       606       688       689       690       691       692       693       694       695
       607       692       693       694       695       696       697       698       699
       608       696       697       698       699       700       701       702       703
       609       700       701       702       703       704       705       706       707
       610       704       705       706       707       708       709       710       711
       611       432       433       477       481       712       713       714       715
       612       712       713       714       715       716       717       718       719
       613       716       717       718       719       720       721       722       723
       614       720       721       722       723       724       725       726       727
       615       724       725       726       727       728       729       730       731
       616       728       729       730       731       732       733       734       735
       617       732       733       734       735       736       737       738       739
       618       736       737       738       739       740       741       742       743
       619       740       741       742       743       744       745       746       747
       620       744       745       746       747       748       749       750       751
# ... 5980 like lines cut
#---1----|----2----|----3----|----4----|----5----|----6----|----7----|----8----|----9----|---10----|
##HWCOLOR components 1 43
/PART/1
#part_title                                                                                         
Box.1                                                                                               
#  prop_ID    mat_ID                         Thick
         1         1                              
#---1----|----2----|----3----|----4----|----5----|----6----|----7----|----8----|----9----|---10----|
##HWCOLOR materials 1 31
/MAT/ELAST/1
Steel                                                                                               
#              RHO_I
              7800.0
#                  E                  nu
      210000000000.0                 0.3
#---1----|----2----|----3----|----4----|----5----|----6----|----7----|----8----|----9----|---10----|
##HWCOLOR properties 1 10
/PROP/SOLID/1
Solid                                                                                               
#   Isolid    Ismstr      Iale     Icpre  Itetra10     Inpts   Itetra4    Iframe                  Dn
        24                                                                                          
#                 qa                  qb                   h              Lambda                  Mu
                                                                                                    
#         deltaT_min            Vdef_min            Vdef_max             ASP_max             COL_min
                                                                                                    
#---1----|----2----|----3----|----4----|----5----|----6----|----7----|----8----|----9----|---10----|
##HMNAME LOADCOLS          2Bcs.1                                                                   
##HWCOLOR loadcollectors 2 59
/BCS/1
Loads                                                                                               
#  Tra rot   skew_ID  grnod_ID
   111 000         0         1
#---1----|----2----|----3----|----4----|----5----|----6----|----7----|----8----|----9----|---10----|
/GRNOD/NODE/1
#title                                                                                              
BC_SEG1                                                                                             
# item_ID1  item_ID2  item_ID3  item_ID4  item_ID5  item_ID6  item_ID7  item_ID8  item_ID9 item_ID10
        11        10         9         8         7         6         5         4         3         2
         1      1503      1504      1507      1508      1511      1512      1515      1516      1519
      1520      1523      1524      1527      1528      1531      1532      1535      1536      1539
      1540      1993      1994      1997      1998      2001      2002      2005      2006      2009
      2010      2013      2014      2017      2018      2021      2022      2025      2026      2029
      2030      3843      3845      3847      3849      3851      3853      3855      3857      3859
      3861      4242      4244      4246      4248      4250      4252      4254      4256      4258
      4260      5072      5073      5074      5075      5076      5077      5078      5079      5080
      5081      5082      5083      5084      5085      5086      5087      5088      5089      5090
      5091      5142      5143      5144      5145      5146      5147      5148      5149      5150
      5151      5902      5904      5906      5908      5910      5912      5914      5916      5918
      5920      6632      6633      6634      6635      6636      6637      6638      6639      6640
      6641
#---1----|----2----|----3----|----4----|----5----|----6----|----7----|----8----|----9----|---10----|
/GRNOD/NODE/2
#title                                                                                              
Interface_SEG1                                                                                      
# item_ID1  item_ID2  item_ID3  item_ID4  item_ID5  item_ID6  item_ID7  item_ID8  item_ID9 item_ID10
        81        80        79        78        77        76        75        74        73        72
        71      3132      3135      3136      3139      3140      3143      3144      3147      3148
      3151      3152      3155      3156      3159      3160      3163      3164      3167      3168
      3171      3312      3314      3315      3317      3318      3320      3321      3323      3324
      3326      3327      3329      3330      3332      3333      3335      3336      3338      3339
      3341      3772      3773      3775      3776      3778      3779      3781      3782      3784
      3785      3787      3788      3790      3791      3793      3794      3796      3797      3799
      3800      5192      5193      5194      5195      5196      5197      5198      5199      5200
      5201      5202      5203      5204      5205      5206      5207      5208      5209      5210
      5211      5433      5435      5437      5439      5441      5443      5445      5447      5449
      5451      6353      6355      6357      6359      6361      6363      6365      6367      6369
      6371      6993      6995      6997      6999      7001      7003      7005      7007      7009
      7011
##--------------------------------------------------------------------------------------------------
## End Of Radioss Block Deck
##--------------------------------------------------------------------------------------------------
/END
##<?xml version="1.0" encoding="utf-8"?>
##<Altair_XML_Export>
##    <UDM xmlns:SOAP-ENV="http://schemas.xmlsoap.org/soap/envelope/" xmlns:SOAP-ENC="http://schemas.xmlsoap.org/soap/encoding/" xmlns:xsi="http://www.w3.org/2001/XMLSchema-instance" xmlns:xsd="http://www.w3.org/2001/XMLSchema" xmlns:udmcfg="http://schemas.altair.com/AltairUDMRuntimeConfig" xmlns:udmxml="http://schemas.altair.com/AltairUDM" xmlns:importrules="http://schemas.altair.com/hsm/importru
##        <udmxml:EntityCollection xsi:type="udmxml:EntityCollectionCType">
##            <udmxml:Entity xsi:type="udmxml:AssemblyDMCType" displayName="HW_Assembly" contentDefinitionType="UDMAssemblyDM" id="f1d7032880a6374580b540abb0ce8ad1:0">
##                <udmxml:Children>
##                    <udmxml:Child xsi:type="udmxml:ChildCType" refId="a66f1cad44eb2e44912161b9187d8407:0" timestamp="1766061551725487" childFlags="0" groupName="boas" contentDefinitionType="UDMBOA"/>
##                </udmxml:Children>
##            </udmxml:Entity>
##            <udmxml:Entity xsi:type="udmxml:BOACType" displayName="HW_BOA" contentDefinitionType="UDMBOA" id="a66f1cad44eb2e44912161b9187d8407:0">
##                <udmxml:Children>
##                    <udmxml:Child xsi:type="udmxml:ChildCType" refId="f3d31031b4e6844098f36bd70e6970e7:0" timestamp="1766061551725487" childFlags="0" groupName="parts" contentDefinitionType="UDMPartProtoOcc">
##                        <AdditionalIdList xsi:type="udmxml:AdditionalIdCType" xmlns="http://schemas.altair.com/AltairUDM" keyValue="Model" keyName="displayname" contentDefinitionType="UDMPartProtoOcc"/>
##                    </udmxml:Child>
##                </udmxml:Children>
##            </udmxml:Entity>
##            <udmxml:Entity xsi:type="udmxml:PartCType" displayName="Box.1.p" contentDefinitionType="UDMPartProto" id="9734a42013c303489747b609882be048:0"/>
##            <udmxml:Entity xsi:type="udmxml:PartCType" displayName="Module Model.p" contentDefinitionType="UDMPartProto" id="c7c0f044fac7bb48a99e1057a87aaf52:0">
##                <udmxml:Children>
##                    <udmxml:Child xsi:type="udmxml:ChildCType" refId="7e28fd0fdb16044eb43f91e15c3fa0d8:0" timestamp="1766061552552143" childFlags="0" groupName="partprotoinst" contentDefinitionType="UDMPartProtoInst"/>
##                </udmxml:Children>
##            </udmxml:Entity>
##            <udmxml:Entity xsi:type="udmxml:PartCType" displayName="Box.1" contentDefinitionType="UDMPartProtoInst" id="7e28fd0fdb16044eb43f91e15c3fa0d8:0">
##                <udmxml:Attributes>
##                    <udmxml:Attribute xsi:type="udmxml:AttributeCType" valueutf8="1 0 0 0 0 1 0 0 0 0 1 0 0 0 0 1" type="string" name="trfmtx" displayName="Transformation matrix">1 0 0 0 0 1 0 0 0 0 1 0 0 0 0 1</udmxml:Attribute>
##                    <udmxml:Attribute xsi:type="udmxml:AttributeCType" valueutf8="true" type="boolean" name="trfmtxisrel" displayName="Is matrix relative?">true</udmxml:Attribute>
##                </udmxml:Attributes>
##                <udmxml:Children>
##                    <udmxml:Child xsi:type="udmxml:ChildCType" refId="9734a42013c303489747b609882be048:0" timestamp="1766061552552143" childFlags="0" groupName="partprotos" contentDefinitionType="UDMPartProto"/>
##                </udmxml:Children>
##                <TransformationMatrix xsi:type="udmxml:TransformationMatrixCType" xmlns="http://schemas.altair.com/AltairUDM" transformationMatrixIsRelative="true" transformationMatrix="1 0 0 0 0 1 0 0 0 0 1 0 0 0 0 1"/>
##            </udmxml:Entity>
##            <udmxml:Entity xsi:type="udmxml:PartCType" protoInstanceRefId="7e28fd0fdb16044eb43f91e15c3fa0d8:0" prototypeRefId="9734a42013c303489747b609882be048:0" displayName="Box.1" contentDefinitionType="UDMPartProtoOcc" id="b0eb5e16a6893f4d884b7e57076feb03:0">
##                <udmxml:Attributes>
##                    <udmxml:Attribute xsi:type="udmxml:AttributeCType" valueutf8="9734a42013c303489747b609882be048" type="string" name="protoref" displayName="Prototype reference">9734a42013c303489747b609882be048</udmxml:Attribute>
##                    <udmxml:Attribute xsi:type="udmxml:AttributeCType" valueutf8="7e28fd0fdb16044eb43f91e15c3fa0d8" type="string" name="protoinstanceref" displayName="Prototype Instance reference">7e28fd0fdb16044eb43f91e15c3fa0d8</udmxml:Attribute>
##                    <udmxml:Attribute xsi:type="udmxml:AttributeCType" valueutf8="Components(1)" type="string" name="EntitySelectionExp">Components(1)</udmxml:Attribute>
##                    <udmxml:Attribute xsi:type="udmxml:AttributeCType" valueutf8="1" type="string" name="SelectionExp">1</udmxml:Attribute>
##                    <udmxml:Attribute xsi:type="udmxml:AttributeCType" valueutf8="10" type="string" name="UdmxmlString_HmOccurrenceColor">10</udmxml:Attribute>
##                    <udmxml:Attribute xsi:type="udmxml:AttributeCType" valueutf8="4" type="string" name="UdmxmlString_HmOccurrenceId">4</udmxml:Attribute>
##                    <udmxml:Attribute xsi:type="udmxml:AttributeCType" valueutf8="12568233" type="string" name="UdmxmlString_HmOccurrenceTrueColor">12568233</udmxml:Attribute>
##                </udmxml:Attributes>
##            </udmxml:Entity>
##            <udmxml:Entity xsi:type="udmxml:PartCType" prototypeRefId="c7c0f044fac7bb48a99e1057a87aaf52:0" displayName="Model" contentDefinitionType="UDMPartProtoOcc" id="f3d31031b4e6844098f36bd70e6970e7:0">
##                <udmxml:Attributes>
##                    <udmxml:Attribute xsi:type="udmxml:AttributeCType" valueutf8="c7c0f044fac7bb48a99e1057a87aaf52" type="string" name="protoref" displayName="Prototype reference">c7c0f044fac7bb48a99e1057a87aaf52</udmxml:Attribute>
##                    <udmxml:Attribute xsi:type="udmxml:AttributeCType" valueutf8="11" type="string" name="UdmxmlString_HmOccurrenceColor">11</udmxml:Attribute>
##                    <udmxml:Attribute xsi:type="udmxml:AttributeCType" valueutf8="2" type="string" name="UdmxmlString_HmOccurrenceId">2</udmxml:Attribute>
##                    <udmxml:Attribute xsi:type="udmxml:AttributeCType" valueutf8="9757073" type="string" name="UdmxmlString_HmOccurrenceTrueColor">9757073</udmxml:Attribute>
##                    <udmxml:Attribute xsi:type="udmxml:AttributeCType" valueutf8="true" type="boolean" name="pseudo root">true</udmxml:Attribute>
##                </udmxml:Attributes>
##                <udmxml:Children>
##                    <udmxml:Child xsi:type="udmxml:ChildCType" refId="b0eb5e16a6893f4d884b7e57076feb03:0" timestamp="1766061552552143" childFlags="0" groupName="partprotooccs" contentDefinitionType="UDMPartProtoOcc">
##                        <AdditionalIdList xsi:type="udmxml:AdditionalIdCType" xmlns="http://schemas.altair.com/AltairUDM" keyValue="Box.1" keyName="displayname" contentDefinitionType="UDMPartProtoOcc"/>
##                    </udmxml:Child>
##                </udmxml:Children>
##            </udmxml:Entity>
##        </udmxml:EntityCollection>
##        <udmxml:RelationCollection xsi:type="udmxml:RelationCollectionCType"/>
##        <udmxml:RootEntities xsi:type="udmxml:RootEntityCollectionCType">
##            <udmxml:ItemId>f1d7032880a6374580b540abb0ce8ad1:0</udmxml:ItemId>
##        </udmxml:RootEntities>
##    </UDM>
##</Altair_XML_Export>
