#RADIOSS STARTER
##========================================================================================
##
## Radioss Input Deck Generated by HyperMesh Version  : 2025.0.0.24
## Generated using HyperMesh-Radioss Template Version : 2025.0.0.24-168648
## Date: 12-18-2025   Time: 14:33:31
##
##========================================================================================
##
##
/BEGIN
#Runname                                                                        
s2                                                                              
#   Invers      Irun
      2024         0
#    Input_mass_unit   Input_length_unit     Input_time_unit
                  kg                   m                   s
#     Work_mass_unit    Work_length_unit      Work_time_unit
                  kg                   m                   s
##
#---1----|----2----|----3----|----4----|----5----|----6----|----7----|----8----|----9----|---10----|
/NODE
#  node_ID                  Xc                  Yc                  Zc
         1                -0.5                 0.5    3.19999980926514
         2                -0.5                 0.5    3.29999980926514
         3                -0.5                 0.5    3.39999980926514
         4                -0.5                 0.5    3.49999980926514
         5                -0.5                 0.5    3.59999980926514
         6                -0.5                 0.5    3.69999980926514
         7                -0.5                 0.5    3.79999980926514
         8                -0.5                 0.5    3.89999980926514
         9                -0.5                 0.5    3.99999980926514
        10                -0.5                 0.5    4.09999980926514
        11                -0.5                 0.5    4.19999980926514
        12                -0.5                 0.5    4.29999980926514
        13                -0.5                 0.5    4.39999980926514
        14                -0.5                 0.5    4.49999980926514
        15                -0.5                 0.5    4.59999980926514
        16                -0.5                 0.5    4.69999980926514
        17                -0.5                 0.5    4.79999980926514
        18                -0.5                 0.5    4.89999980926514
        19                -0.5                 0.5    4.99999980926514
        20                -0.5                 0.5    5.09999980926514
# ... 2521 like lines cut
#---1----|----2----|----3----|----4----|----5----|----6----|----7----|----8----|----9----|---10----|
/BRICK/2
# brick_ID  node_ID1  node_ID2  node_ID3  node_ID4  node_ID5  node_ID6  node_ID7  node_ID8
       201       188       193       195       189       232       233       234       235
       202       232       233       234       235       236       237       238       239
       203       236       237       238       239       240       241       242       243
       204       240       241       242       243       244       245       246       247
       205       244       245       246       247       248       249       250       251
       206       248       249       250       251       252       253       254       255
       207       252       253       254       255       256       257       258       259
       208       256       257       258       259       260       261       262       263
       209       260       261       262       263       264       265       266       267
       210       264       265       266       267       268       269       270       271
       211        74        75       106        79       272       273       274       275
       212       272       273       274       275       276       277       278       279
       213       276       277       278       279       280       281       282       283
       214       280       281       282       283       284       285       286       287
       215       284       285       286       287       288       289       290       291
       216       288       289       290       291       292       293       294       295
       217       292       293       294       295       296       297       298       299
       218       296       297       298       299       300       301       302       303
       219       300       301       302       303       304       305       306       307
       220       304       305       306       307       308       309       310       311
# ... 1980 like lines cut
#---1----|----2----|----3----|----4----|----5----|----6----|----7----|----8----|----9----|---10----|
##HWCOLOR components 2 37
/PART/2
#part_title                                                                                         
component12                                                                                         
#  prop_ID    mat_ID                         Thick
         1         1                              
#---1----|----2----|----3----|----4----|----5----|----6----|----7----|----8----|----9----|---10----|
##HWCOLOR materials 1 31
/MAT/ELAST/1
Steel                                                                                               
#              RHO_I
              7800.0
#                  E                  nu
      210000000000.0                 0.3
#---1----|----2----|----3----|----4----|----5----|----6----|----7----|----8----|----9----|---10----|
##HWCOLOR properties 1 10
/PROP/SOLID/1
Solid                                                                                               
#   Isolid    Ismstr      Iale     Icpre  Itetra10     Inpts   Itetra4    Iframe                  Dn
        24                                                                                          
#                 qa                  qb                   h              Lambda                  Mu
                                                                                                    
#         deltaT_min            Vdef_min            Vdef_max             ASP_max             COL_min
                                                                                                    
#---1----|----2----|----3----|----4----|----5----|----6----|----7----|----8----|----9----|---10----|
##HMNAME LOADCOLS          2Bcs.1                                                                   
##HWCOLOR loadcollectors 2 59
/BCS/1
Loads                                                                                               
#  Tra rot   skew_ID  grnod_ID
   111 000         0         1
#---1----|----2----|----3----|----4----|----5----|----6----|----7----|----8----|----9----|---10----|
##HMNAME LOADCOLS          3Pload                                                                   
##HWCOLOR loadcollectors 3 26
/PLOAD/2
Loads_surdace                                                                                       
#  surf_ID  functIDT sensor_ID                                          Ascale_x            Fscale_y
         2         1         0                                                                      
#---1----|----2----|----3----|----4----|----5----|----6----|----7----|----8----|----9----|---10----|
##HWCOLOR curves 1 10
/FUNCT/1
#title                                                                                              
curve1                                                                                              
#                  X                   Y
                 0.0                 0.0
                10.0             50000.0
#---1----|----2----|----3----|----4----|----5----|----6----|----7----|----8----|----9----|---10----|
/GRNOD/NODE/1
#title                                                                                              
BC_SEG2                                                                                             
# item_ID1  item_ID2  item_ID3  item_ID4  item_ID5  item_ID6  item_ID7  item_ID8  item_ID9 item_ID10
        21        22        23        24        25        26        27        28        29        30
        31       353       354       357       358       361       362       365       366       369
       370       373       374       377       378       381       382       385       386       389
       390      1143      1144      1147      1148      1151      1152      1155      1156      1159
      1160      1163      1164      1167      1168      1171      1172      1175      1176      1179
      1180      1452      1455      1456      1459      1460      1463      1464      1467      1468
      1471      1472      1475      1476      1479      1480      1483      1484      1487      1488
      1491      1633      1634      1637      1638      1641      1642      1645      1646      1649
      1650      1653      1654      1657      1658      1661      1662      1665      1666      1669
      1670      2172      2173      2174      2175      2176      2177      2178      2179      2180
      2181      2442      2443      2444      2445      2446      2447      2448      2449      2450
      2451      2532      2533      2534      2535      2536      2537      2538      2539      2540
      2541
#---1----|----2----|----3----|----4----|----5----|----6----|----7----|----8----|----9----|---10----|
/GRNOD/NODE/3
#title                                                                                              
Interface_SEG2                                                                                      
# item_ID1  item_ID2  item_ID3  item_ID4  item_ID5  item_ID6  item_ID7  item_ID8  item_ID9 item_ID10
         1        51        52        53        54        55        56        57        58        59
        60       762       765       766       769       770       773       774       777       778
       781       782       785       786       789       790       793       794       797       798
       801       832       834       836       838       840       842       844       846       848
       850      1002      1004      1005      1007      1008      1010      1011      1013      1014
      1016      1017      1019      1020      1022      1023      1025      1026      1028      1029
      1031      1292      1295      1296      1299      1300      1303      1304      1307      1308
      1311      1312      1315      1316      1319      1320      1323      1324      1327      1328
      1331      1852      1853      1854      1855      1856      1857      1858      1859      1860
      1861      1962      1965      1966      1969      1970      1973      1974      1977      1978
      1981      1982      1985      1986      1989      1990      1993      1994      1997      1998
      2001      2492      2493      2494      2495      2496      2497      2498      2499      2500
      2501
#---1----|----2----|----3----|----4----|----5----|----6----|----7----|----8----|----9----|---10----|
/SURF/SEG/2
#title                                                                                              
set_surf_load                                                                                       
#   seg_ID  node_ID1  node_ID2  node_ID3  node_ID4
         1        18        19       974       973
         2       973       974       977       976
         3       976       977       980       979
         4       979       980       983       982
         5       982       983       986       985
         6       985       986       989       988
         7       988       989       992       991
         8       991       992       995       994
         9       994       995       998       997
        10       997       998      1001      1000
        11         5         6      1183      1182
        12      1182      1183      1187      1186
        13      1186      1187      1191      1190
        14      1190      1191      1195      1194
        15      1194      1195      1199      1198
        16      1198      1199      1203      1202
        17      1202      1203      1207      1206
        18      1206      1207      1211      1210
        19      1210      1211      1215      1214
        20      1214      1215      1219      1218
# ... 180 like lines cut
##--------------------------------------------------------------------------------------------------
## End Of Radioss Block Deck
##--------------------------------------------------------------------------------------------------
/END
##<?xml version="1.0" encoding="utf-8"?>
##<Altair_XML_Export>
##    <UDM xmlns:SOAP-ENV="http://schemas.xmlsoap.org/soap/envelope/" xmlns:SOAP-ENC="http://schemas.xmlsoap.org/soap/encoding/" xmlns:xsi="http://www.w3.org/2001/XMLSchema-instance" xmlns:xsd="http://www.w3.org/2001/XMLSchema" xmlns:udmcfg="http://schemas.altair.com/AltairUDMRuntimeConfig" xmlns:udmxml="http://schemas.altair.com/AltairUDM" xmlns:importrules="http://schemas.altair.com/hsm/importru
##        <udmxml:EntityCollection xsi:type="udmxml:EntityCollectionCType">
##            <udmxml:Entity xsi:type="udmxml:AssemblyDMCType" displayName="HW_Assembly" contentDefinitionType="UDMAssemblyDM" id="f1d7032880a6374580b540abb0ce8ad1:0">
##                <udmxml:Children>
##                    <udmxml:Child xsi:type="udmxml:ChildCType" refId="a66f1cad44eb2e44912161b9187d8407:0" timestamp="1766061551725487" childFlags="0" groupName="boas" contentDefinitionType="UDMBOA"/>
##                </udmxml:Children>
##            </udmxml:Entity>
##            <udmxml:Entity xsi:type="udmxml:BOACType" displayName="HW_BOA" contentDefinitionType="UDMBOA" id="a66f1cad44eb2e44912161b9187d8407:0">
##                <udmxml:Children>
##                    <udmxml:Child xsi:type="udmxml:ChildCType" refId="f3d31031b4e6844098f36bd70e6970e7:0" timestamp="1766061551725487" childFlags="0" groupName="parts" contentDefinitionType="UDMPartProtoOcc">
##                        <AdditionalIdList xsi:type="udmxml:AdditionalIdCType" xmlns="http://schemas.altair.com/AltairUDM" keyValue="Model" keyName="displayname" contentDefinitionType="UDMPartProtoOcc"/>
##                    </udmxml:Child>
##                </udmxml:Children>
##            </udmxml:Entity>
##            <udmxml:Entity xsi:type="udmxml:PartCType" displayName="Box.1.p" contentDefinitionType="UDMPartProto" id="9734a42013c303489747b609882be048:0"/>
##            <udmxml:Entity xsi:type="udmxml:PartCType" displayName="Module Model.p" contentDefinitionType="UDMPartProto" id="c7c0f044fac7bb48a99e1057a87aaf52:0">
##                <udmxml:Children>
##                    <udmxml:Child xsi:type="udmxml:ChildCType" refId="7e28fd0fdb16044eb43f91e15c3fa0d8:0" timestamp="1766061552552143" childFlags="0" groupName="partprotoinst" contentDefinitionType="UDMPartProtoInst"/>
##                </udmxml:Children>
##            </udmxml:Entity>
##            <udmxml:Entity xsi:type="udmxml:PartCType" displayName="Box.1" contentDefinitionType="UDMPartProtoInst" id="7e28fd0fdb16044eb43f91e15c3fa0d8:0">
##                <udmxml:Attributes>
##                    <udmxml:Attribute xsi:type="udmxml:AttributeCType" valueutf8="1 0 0 0 0 1 0 0 0 0 1 0 0 0 0 1" type="string" name="trfmtx" displayName="Transformation matrix">1 0 0 0 0 1 0 0 0 0 1 0 0 0 0 1</udmxml:Attribute>
##                    <udmxml:Attribute xsi:type="udmxml:AttributeCType" valueutf8="true" type="boolean" name="trfmtxisrel" displayName="Is matrix relative?">true</udmxml:Attribute>
##                </udmxml:Attributes>
##                <udmxml:Children>
##                    <udmxml:Child xsi:type="udmxml:ChildCType" refId="9734a42013c303489747b609882be048:0" timestamp="1766061552552143" childFlags="0" groupName="partprotos" contentDefinitionType="UDMPartProto"/>
##                </udmxml:Children>
##                <TransformationMatrix xsi:type="udmxml:TransformationMatrixCType" xmlns="http://schemas.altair.com/AltairUDM" transformationMatrixIsRelative="true" transformationMatrix="1 0 0 0 0 1 0 0 0 0 1 0 0 0 0 1"/>
##            </udmxml:Entity>
##            <udmxml:Entity xsi:type="udmxml:PartCType" protoInstanceRefId="7e28fd0fdb16044eb43f91e15c3fa0d8:0" prototypeRefId="9734a42013c303489747b609882be048:0" displayName="Box.1" contentDefinitionType="UDMPartProtoOcc" id="b0eb5e16a6893f4d884b7e57076feb03:0">
##                <udmxml:Attributes>
##                    <udmxml:Attribute xsi:type="udmxml:AttributeCType" valueutf8="9734a42013c303489747b609882be048" type="string" name="protoref" displayName="Prototype reference">9734a42013c303489747b609882be048</udmxml:Attribute>
##                    <udmxml:Attribute xsi:type="udmxml:AttributeCType" valueutf8="7e28fd0fdb16044eb43f91e15c3fa0d8" type="string" name="protoinstanceref" displayName="Prototype Instance reference">7e28fd0fdb16044eb43f91e15c3fa0d8</udmxml:Attribute>
##                    <udmxml:Attribute xsi:type="udmxml:AttributeCType" valueutf8="Components(2)" type="string" name="EntitySelectionExp">Components(2)</udmxml:Attribute>
##                    <udmxml:Attribute xsi:type="udmxml:AttributeCType" valueutf8="2" type="string" name="SelectionExp">2</udmxml:Attribute>
##                    <udmxml:Attribute xsi:type="udmxml:AttributeCType" valueutf8="10" type="string" name="UdmxmlString_HmOccurrenceColor">10</udmxml:Attribute>
##                    <udmxml:Attribute xsi:type="udmxml:AttributeCType" valueutf8="4" type="string" name="UdmxmlString_HmOccurrenceId">4</udmxml:Attribute>
##                    <udmxml:Attribute xsi:type="udmxml:AttributeCType" valueutf8="12568233" type="string" name="UdmxmlString_HmOccurrenceTrueColor">12568233</udmxml:Attribute>
##                </udmxml:Attributes>
##            </udmxml:Entity>
##            <udmxml:Entity xsi:type="udmxml:PartCType" prototypeRefId="c7c0f044fac7bb48a99e1057a87aaf52:0" displayName="Model" contentDefinitionType="UDMPartProtoOcc" id="f3d31031b4e6844098f36bd70e6970e7:0">
##                <udmxml:Attributes>
##                    <udmxml:Attribute xsi:type="udmxml:AttributeCType" valueutf8="c7c0f044fac7bb48a99e1057a87aaf52" type="string" name="protoref" displayName="Prototype reference">c7c0f044fac7bb48a99e1057a87aaf52</udmxml:Attribute>
##                    <udmxml:Attribute xsi:type="udmxml:AttributeCType" valueutf8="11" type="string" name="UdmxmlString_HmOccurrenceColor">11</udmxml:Attribute>
##                    <udmxml:Attribute xsi:type="udmxml:AttributeCType" valueutf8="2" type="string" name="UdmxmlString_HmOccurrenceId">2</udmxml:Attribute>
##                    <udmxml:Attribute xsi:type="udmxml:AttributeCType" valueutf8="9757073" type="string" name="UdmxmlString_HmOccurrenceTrueColor">9757073</udmxml:Attribute>
##                    <udmxml:Attribute xsi:type="udmxml:AttributeCType" valueutf8="true" type="boolean" name="pseudo root">true</udmxml:Attribute>
##                </udmxml:Attributes>
##                <udmxml:Children>
##                    <udmxml:Child xsi:type="udmxml:ChildCType" refId="b0eb5e16a6893f4d884b7e57076feb03:0" timestamp="1766061552552143" childFlags="0" groupName="partprotooccs" contentDefinitionType="UDMPartProtoOcc">
##                        <AdditionalIdList xsi:type="udmxml:AdditionalIdCType" xmlns="http://schemas.altair.com/AltairUDM" keyValue="Box.1" keyName="displayname" contentDefinitionType="UDMPartProtoOcc"/>
##                    </udmxml:Child>
##                </udmxml:Children>
##            </udmxml:Entity>
##        </udmxml:EntityCollection>
##        <udmxml:RelationCollection xsi:type="udmxml:RelationCollectionCType"/>
##        <udmxml:RootEntities xsi:type="udmxml:RootEntityCollectionCType">
##            <udmxml:ItemId>f1d7032880a6374580b540abb0ce8ad1:0</udmxml:ItemId>
##        </udmxml:RootEntities>
##    </UDM>
##</Altair_XML_Export>
